2024_89_CemigReconfigurationCases/1_SEsCemig/ENC07/ENC07SegmentosMT.dss
new line.SMT_10002399 bus1=BMT5994648B.1.2.3,bus2=BMT2903077B.1.2.3,Phases=3,Linecode=CABA06_3_3_3,Length=0.021983000,Units=km
new line.SMT_10003666 bus1=BMT5996461B.1,bus2=BMT5996468B.1,Phases=1,Linecode=CAB202_3_1_1,Length=0.101105000,Units=km
new line.SMT_10003673 bus1=BMT5996468B.1,bus2=BMT5996482B.1,Phases=1,Linecode=CAB202_3_1_1,Length=0.099753000,Units=km
new line.SMT_10003680 bus1=BMT5996475B.1,bus2=BMT5996461B.1,Phases=1,Linecode=CAB202_3_1_1,Length=0.392375000,Units=km
new line.SMT_10003687 bus1=BMT5996482B.1,bus2=BMT5996489B.1,Phases=1,Linecode=CAB202_3_1_1,Length=0.049482000,Units=km
new line.SMT_10003694 bus1=BMT5996489B.1,bus2=BMT5996496B.1,Phases=1,Linecode=CAB202_3_1_1,Length=0.060173000,Units=km
new line.SMT_10003701 bus1=BMT5996496B.1,bus2=BMT100376810.1,Phases=1,Linecode=CAB202_3_1_1,Length=0.167741000,Units=km
new line.SMT_10003708 bus1=BMT5996503B.1,bus2=BMT5996545B.1,Phases=1,Linecode=CAB202_3_1_1,Length=0.212655000,Units=km
new line.SMT_10003715 bus1=BMT5996510B.1,bus2=BMT5996517B.1,Phases=1,Linecode=CAB202_3_1_1,Length=0.200717000,Units=km
new line.SMT_10003722 bus1=BMT5996517B.1,bus2=BMT100376817.1,Phases=1,Linecode=CAB202_3_1_1,Length=0.292624000,Units=km
new line.SMT_10003736 bus1=BMT5996545B.1,bus2=BMT5996510B.1,Phases=1,Linecode=CAB202_3_1_1,Length=0.173531000,Units=km
new line.SMT_10003785 bus1=BMT5996678B.1,bus2=BMT2604786B.1,Phases=1,Linecode=CAB202_3_1_1,Length=1.522164000,Units=km
new line.SMT_10009175 bus1=BMT6005036B.3,bus2=BMT182316394.3,Phases=1,Linecode=CAB202_3_1_1,Length=0.092120000,Units=km
new line.SMT_10010379 bus1=BMT6006583B.1.2.3,bus2=BMT166148483.1.2.3,Phases=3,Linecode=CAB204_3_3_3,Length=0.016479000,Units=km
new line.SMT_10010435 bus1=BMT6006646B.1.2.3,bus2=BMT6006660B.1.2.3,Phases=3,Linecode=CAB204_3_3_3,Length=0.168533000,Units=km
new line.SMT_10010442 bus1=BMT6006660B.1.2.3,bus2=BMT2109746B.1.2.3,Phases=3,Linecode=CAB204_3_3_3,Length=0.076514000,Units=km
new line.SMT_10010449 bus1=BMT6006667B.1.2.3,bus2=BMT6006646B.1.2.3,Phases=3,Linecode=CAB204_3_3_3,Length=0.109787000,Units=km
new line.SMT_10014866 bus1=BMT6013058B.2,bus2=BMT1166573B.2,Phases=1,Linecode=CAB102_3_1_1,Length=0.017680000,Units=km
new line.SMT_10015006 bus1=BMT6013233B.1,bus2=BMT6013240B.1,Phases=1,Linecode=CAB202_3_1_1,Length=0.415710000,Units=km
new line.SMT_10015013 bus1=BMT6013240B.1,bus2=BMT6013247B.1,Phases=1,Linecode=CAB202_3_1_1,Length=0.067220000,Units=km
new line.SMT_10015020 bus1=BMT6013247B.1,bus2=BMT100377104.1,Phases=1,Linecode=CAB202_3_1_1,Length=0.282349000,Units=km
new line.SMT_10015069 bus1=BMT6013317B.1.2.3,bus2=BMT100374241.1.2.3,Phases=3,Linecode=CAB202_3_3_3,Length=0.105270000,Units=km
new line.SMT_10015741 bus1=BMT6014451B.1.2.3,bus2=BMT182521815.1.2.3,Phases=3,Linecode=CAB103_3_3_3,Length=0.004997000,Units=km
new line.SMT_10302573 bus1=BMT6525661B.1.2.3,bus2=BMT6525689B.1.2.3,Phases=3,Linecode=CAB204_3_3_3,Length=0.087298000,Units=km
new line.SMT_10302580 bus1=BMT6525689B.1.2.3,bus2=BMT6525794B.1.2.3,Phases=3,Linecode=CAB204_3_3_3,Length=0.134132000,Units=km
new line.SMT_10302601 bus1=BMT6525794B.1.2.3,bus2=BMT100372057.1.2.3,Phases=3,Linecode=CAB204_3_3_3,Length=0.041017000,Units=km
new line.SMT_10302720 bus1=BMT6526053B.3,bus2=BMT2914214B.3,Phases=1,Linecode=CAB202_3_1_1,Length=0.051068000,Units=km
new line.SMT_10302748 bus1=BMT6526109B.1.2.3,bus2=BMT6526116B.1.2.3,Phases=3,Linecode=CAB204_3_3_3,Length=0.132206000,Units=km
new line.SMT_10302762 bus1=BMT153537266.3,bus2=BMT6526130B.3,Phases=1,Linecode=CAB202_3_1_1,Length=0.060368000,Units=km
new line.SMT_10302769 bus1=BMT6526130B.3,bus2=BMT153537267.3,Phases=1,Linecode=CAB202_3_1_1,Length=0.255144000,Units=km
new line.SMT_10302930 bus1=BMT6526375B.1,bus2=BMT6526382B.1,Phases=1,Linecode=CAB202_3_1_1,Length=0.095950000,Units=km
new line.SMT_10302937 bus1=BMT6526382B.1,bus2=BMT6526389B.1,Phases=1,Linecode=CAB202_3_1_1,Length=0.046353000,Units=km
new line.SMT_10302944 bus1=BMT6526389B.1,bus2=BMT177019097.1,Phases=1,Linecode=CAB202_3_1_1,Length=0.430532000,Units=km
new line.SMT_10303133 bus1=BMT6526711B.3,bus2=BMT100371980.3,Phases=1,Linecode=CAB202_3_1_1,Length=0.149376000,Units=km
new line.SMT_10303420 bus1=BMT6527453B.3,bus2=BMT6526711B.3,Phases=1,Linecode=CAB202_3_1_1,Length=0.296551000,Units=km
new line.SMT_10303609 bus1=BMT6527845B.2,bus2=BMT177139609.2,Phases=1,Linecode=CAB202_3_1_1,Length=0.387054000,Units=km
new line.SMT_10304351 bus1=BMT6529196B.3,bus2=BMT6529217B.3,Phases=1,Linecode=CAB202_3_1_1,Length=0.325448000,Units=km
new line.SMT_10304358 bus1=BMT6529217B.3,bus2=BMT2529599B.3,Phases=1,Linecode=CAB202_3_1_1,Length=0.041198000,Units=km
new line.SMT_10304449 bus1=BMT6529329B.3,bus2=BMT6529343B.3,Phases=1,Linecode=CAB202_3_1_1,Length=0.161376000,Units=km
new line.SMT_10304456 bus1=BMT6529343B.3,bus2=BMT6529350B.3,Phases=1,Linecode=CAB202_3_1_1,Length=0.121101000,Units=km
new line.SMT_10304463 bus1=BMT6529350B.3,bus2=BMT100371882.3,Phases=1,Linecode=CAB202_3_1_1,Length=0.026285000,Units=km
new line.SMT_10305793 bus1=BMT6531765B.2,bus2=BMT100371840.2,Phases=1,Linecode=CAB202_3_1_1,Length=0.104920000,Units=km
new line.SMT_10305800 bus1=BMT178692678.2,bus2=BMT178692679.2,Phases=1,Linecode=CAB202_3_1_1,Length=0.530474000,Units=km
new line.SMT_10305940 bus1=BMT6532122B.2,bus2=BMT178692688.2,Phases=1,Linecode=CAB202_3_1_1,Length=0.106956000,Units=km
new line.SMT_10306017 bus1=BMT6532234B.2,bus2=BMT100371574.2,Phases=1,Linecode=CAB202_3_1_1,Length=0.042404000,Units=km
new line.SMT_10118823 bus1=BMT6207350B.3,bus2=BMT2523187B.3,Phases=1,Linecode=CAB202_3_1_1,Length=0.431244000,Units=km
new line.SMT_10118879 bus1=BMT6207413B.3,bus2=BMT6207434B.3,Phases=1,Linecode=CAB202_3_1_1,Length=0.190024000,Units=km
new line.SMT_10118900 bus1=BMT6207434B.3,bus2=BMT2523348B.3,Phases=1,Linecode=CAB202_3_1_1,Length=0.085524000,Units=km
new line.SMT_10118914 bus1=BMT6207511B.3,bus2=BMT6207518B.3,Phases=1,Linecode=CAB202_3_1_1,Length=0.062244000,Units=km
new line.SMT_10118921 bus1=BMT6207518B.3,bus2=BMT6207525B.3,Phases=1,Linecode=CAB202_3_1_1,Length=0.120511000,Units=km
new line.SMT_10118928 bus1=BMT6207525B.3,bus2=BMT2523355B.3,Phases=1,Linecode=CAB202_3_1_1,Length=0.308437000,Units=km
new line.SMT_10118942 bus1=BMT6207546B.3,bus2=BMT177458372.3,Phases=1,Linecode=CAB202_3_1_1,Length=0.390224000,Units=km
new line.SMT_10119061 bus1=BMT164463183.3,bus2=BMT177458374.3,Phases=1,Linecode=CAB202_3_1_1,Length=0.063089000,Units=km
new line.SMT_10119306 bus1=BMT6208106B.1,bus2=BMT100383383.1,Phases=1,Linecode=CAB202_3_1_1,Length=0.108673000,Units=km
new line.SMT_10123723 bus1=BMT6215050B.3,bus2=BMT150928416.3,Phases=1,Linecode=CAB103_3_1_1,Length=0.037986000,Units=km
new line.SMT_10123779 bus1=BMT150928427.3,bus2=BMT150928428.3,Phases=1,Linecode=CAB202_3_1_1,Length=0.089628000,Units=km
new line.SMT_10123786 bus1=BMT150928427.3,bus2=BMT6393494B.3,Phases=1,Linecode=CAB103_3_1_1,Length=0.001000000,Units=km
new line.SMT_10123856 bus1=BMT6215246B.3,bus2=BMT6215267B.3,Phases=1,Linecode=CAB202_3_1_1,Length=0.126812000,Units=km
new line.SMT_10123870 bus1=BMT6215267B.3,bus2=BMT100360640.3,Phases=1,Linecode=CAB202_3_1_1,Length=0.144261000,Units=km
new line.SMT_10123891 bus1=BMT6215323B.3,bus2=BMT150928424.3,Phases=1,Linecode=CAB202_3_1_1,Length=0.128781000,Units=km
new line.SMT_10123919 bus1=BMT150928426.3,bus2=BMT150928427.3,Phases=1,Linecode=CAB202_3_1_1,Length=0.042689000,Units=km
new line.SMT_10123947 bus1=BMT6215449B.3,bus2=BMT150928451.3,Phases=1,Linecode=CAB202_3_1_1,Length=0.279922000,Units=km
new line.SMT_10123968 bus1=BMT6215533B.3,bus2=BMT159575979.3,Phases=1,Linecode=CAB202_3_1_1,Length=0.148112000,Units=km
new line.SMT_10124010 bus1=BMT6215617B.3,bus2=BMT150928437.3,Phases=1,Linecode=CAB202_3_1_1,Length=0.486278000,Units=km
new line.SMT_10124038 bus1=BMT150928418.3,bus2=BMT150928419.3,Phases=1,Linecode=CAB202_3_1_1,Length=0.242186000,Units=km
new line.SMT_10124045 bus1=BMT150928418.3,bus2=BMT138548552.3,Phases=1,Linecode=CAB202_3_1_1,Length=0.036865000,Units=km
new line.SMT_10124073 bus1=BMT6215771B.3,bus2=BMT156500081.3,Phases=1,Linecode=CAB202_3_1_1,Length=0.425295000,Units=km
new line.SMT_10124150 bus1=BMT159371390.3,bus2=BMT159371391.3,Phases=1,Linecode=CAB202_3_1_1,Length=0.099651000,Units=km
new line.SMT_10124458 bus1=BMT6216163B.1.2.3,bus2=BMT2799547B.1.2.3,Phases=3,Linecode=CAB103_3_3_3,Length=0.044240000,Units=km
new line.SMT_10128399 bus1=BMT6222204B.1.2.3,bus2=BMT100361102.1.2.3,Phases=3,Linecode=CAB202_3_3_3,Length=0.060123000,Units=km
new line.SMT_10128448 bus1=BMT6222295B.3,bus2=BMT177458349.3,Phases=1,Linecode=CAB202_3_1_1,Length=0.191865000,Units=km
new line.SMT_10128483 bus1=BMT177458361.3,bus2=BMT177458362.3,Phases=1,Linecode=CAB202_3_1_1,Length=0.087028000,Units=km
new line.SMT_10128567 bus1=BMT6222575B.3,bus2=BMT100360416.3,Phases=1,Linecode=CAB202_3_1_1,Length=0.140925000,Units=km
new line.SMT_10128602 bus1=BMT6222617B.3,bus2=BMT150928454.3,Phases=1,Linecode=CAB202_3_1_1,Length=0.089204000,Units=km
new line.SMT_10128623 bus1=BMT181141212.2,bus2=BMT181141213.2,Phases=1,Linecode=CAB202_3_1_1,Length=0.086205000,Units=km
new line.SMT_10128630 bus1=BMT181141212.2,bus2=BMT181141214.2,Phases=1,Linecode=CAB202_3_1_1,Length=0.096496000,Units=km
new line.SMT_10128714 bus1=BMT6222862B.2,bus2=BMT100360927.2,Phases=1,Linecode=CAB202_3_1_1,Length=0.061510000,Units=km
new line.SMT_10128728 bus1=BMT6222890B.2,bus2=BMT6222911B.2,Phases=1,Linecode=CAB202_3_1_1,Length=0.136400000,Units=km
new line.SMT_10128742 bus1=BMT6222911B.2,bus2=BMT100360948.2,Phases=1,Linecode=CAB202_3_1_1,Length=0.151141000,Units=km
new line.SMT_10128756 bus1=BMT6222939B.2,bus2=BMT165791976.2,Phases=1,Linecode=CAB202_3_1_1,Length=0.392393000,Units=km
new line.SMT_10254931 bus1=BMT157689323.3,bus2=BMT6449053B.3,Phases=1,Linecode=CAB202_3_1_1,Length=0.094136000,Units=km
new line.SMT_10254938 bus1=BMT6449053B.3,bus2=BMT6449060B.3,Phases=1,Linecode=CAB202_3_1_1,Length=0.174533000,Units=km
new line.SMT_10254945 bus1=BMT6449060B.3,bus2=BMT6449067B.3,Phases=1,Linecode=CAB202_3_1_1,Length=0.148020000,Units=km
new line.SMT_10254952 bus1=BMT6449067B.3,bus2=BMT6449074B.3,Phases=1,Linecode=CAB202_3_1_1,Length=0.054880000,Units=km
new line.SMT_10254959 bus1=BMT6449074B.3,bus2=BMT6449081B.3,Phases=1,Linecode=CAB202_3_1_1,Length=0.026382000,Units=km
new line.SMT_10254966 bus1=BMT6449081B.3,bus2=BMT157689324.3,Phases=1,Linecode=CAB202_3_1_1,Length=0.519735000,Units=km
new line.SMT_10254973 bus1=BMT158298233.3,bus2=BMT6449095B.3,Phases=1,Linecode=CAB202_3_1_1,Length=0.052764000,Units=km
new line.SMT_10254980 bus1=BMT6449095B.3,bus2=BMT6449102B.3,Phases=1,Linecode=CAB202_3_1_1,Length=0.033263000,Units=km
new line.SMT_10254987 bus1=BMT6449102B.3,bus2=BMT158298234.3,Phases=1,Linecode=CAB202_3_1_1,Length=0.029594000,Units=km
new line.SMT_10254994 bus1=BMT158298234.3,bus2=BMT158298235.3,Phases=1,Linecode=CAB202_3_1_1,Length=0.229350000,Units=km
new line.SMT_10263366 bus1=BMT6460435B.2,bus2=BMT166628170.2,Phases=1,Linecode=CAB202_3_1_1,Length=0.035102000,Units=km
new line.SMT_10063229 bus1=BMT6098696B.2,bus2=BMT2528542B.2,Phases=1,Linecode=CAB202_3_1_1,Length=0.131483000,Units=km
new line.SMT_10065049 bus1=BMT6101853B.1,bus2=BMT182152242.1,Phases=1,Linecode=CAB202_3_1_1,Length=0.083105000,Units=km
new line.SMT_10191042 bus1=BMT100371777.2,bus2=BMT100371784.2,Phases=1,Linecode=CAB201_3_1_1,Length=0.059636000,Units=km
new line.SMT_10191602 bus1=BMT6345488B.1,bus2=BMT6345495B.1,Phases=1,Linecode=CAB202_3_1_1,Length=0.057206000,Units=km
new line.SMT_10191609 bus1=BMT6345495B.1,bus2=BMT6345502B.1,Phases=1,Linecode=CAB202_3_1_1,Length=0.337479000,Units=km
new line.SMT_10193604 bus1=BMT6348799B.2,bus2=BMT166149140.2,Phases=1,Linecode=CAB202_3_1_1,Length=0.051825000,Units=km
new line.SMT_10193611 bus1=BMT166149140.2,bus2=BMT166149141.2,Phases=1,Linecode=CAB202_3_1_1,Length=0.184206000,Units=km
new line.SMT_10193618 bus1=BMT166149140.2,bus2=BMT6383218B.2,Phases=1,Linecode=CAB202_3_1_1,Length=0.270400000,Units=km
new line.SMT_10193688 bus1=BMT181873630.3,bus2=BMT2975849B.3,Phases=1,Linecode=CAB202_3_1_1,Length=0.155557000,Units=km
new line.SMT_10194157 bus1=BMT171987110.2,bus2=BMT171987111.2,Phases=1,Linecode=CAB202_3_1_1,Length=0.133326000,Units=km
new line.SMT_10195018 bus1=BMT166151738.3,bus2=BMT166151739.3,Phases=1,Linecode=CAB202_3_1_1,Length=0.103992000,Units=km
new line.SMT_10195025 bus1=BMT166151738.3,bus2=BMT166151740.3,Phases=1,Linecode=CAB202_3_1_1,Length=0.149974000,Units=km
new line.SMT_10200653 bus1=BMT6360713B.2,bus2=BMT6360720B.2,Phases=1,Linecode=CAB202_3_1_1,Length=0.068422000,Units=km
new line.SMT_10200660 bus1=BMT6360720B.2,bus2=BMT6360727B.2,Phases=1,Linecode=CAB202_3_1_1,Length=0.044118000,Units=km
new line.SMT_10200667 bus1=BMT6360727B.2,bus2=BMT6360734B.2,Phases=1,Linecode=CAB202_3_1_1,Length=0.052137000,Units=km
new line.SMT_10200674 bus1=BMT6360734B.2,bus2=BMT6360741B.2,Phases=1,Linecode=CAB202_3_1_1,Length=0.069824000,Units=km
new line.SMT_10200681 bus1=BMT6360741B.2,bus2=BMT176236753.2,Phases=1,Linecode=CAB202_3_1_1,Length=0.077471000,Units=km
new line.SMT_10201416 bus1=BMT6361749B.2,bus2=BMT6361756B.2,Phases=1,Linecode=CAB202_3_1_1,Length=0.289897000,Units=km
new line.SMT_10201423 bus1=BMT6361756B.2,bus2=BMT6361763B.2,Phases=1,Linecode=CAB202_3_1_1,Length=0.201520000,Units=km
new line.SMT_10201430 bus1=BMT6361763B.2,bus2=BMT6361770B.2,Phases=1,Linecode=CAB202_3_1_1,Length=0.172488000,Units=km
new line.SMT_10201437 bus1=BMT6361770B.2,bus2=BMT166149161.2,Phases=1,Linecode=CAB202_3_1_1,Length=0.176667000,Units=km
new line.SMT_10201444 bus1=BMT6361784B.2,bus2=BMT6361749B.2,Phases=1,Linecode=CAB202_3_1_1,Length=0.322414000,Units=km
new line.SMT_10201451 bus1=BMT166149132.2,bus2=BMT6361805B.2,Phases=1,Linecode=CAB202_3_1_1,Length=0.041207000,Units=km
new line.SMT_10201458 bus1=BMT6361805B.2,bus2=BMT6361812B.2,Phases=1,Linecode=CAB202_3_1_1,Length=0.166878000,Units=km
new line.SMT_10201465 bus1=BMT6361812B.2,bus2=BMT6361819B.2,Phases=1,Linecode=CAB202_3_1_1,Length=0.249898000,Units=km
new line.SMT_10201472 bus1=BMT6361819B.2,bus2=BMT166149133.2,Phases=1,Linecode=CAB202_3_1_1,Length=0.082823000,Units=km
new line.SMT_10201479 bus1=BMT166149133.2,bus2=BMT6361833B.2,Phases=1,Linecode=CAB202_3_1_1,Length=0.030049000,Units=km
new line.SMT_10201486 bus1=BMT6361833B.2,bus2=BMT6361840B.2,Phases=1,Linecode=CAB202_3_1_1,Length=0.087588000,Units=km
new line.SMT_10201493 bus1=BMT6361840B.2,bus2=BMT166149134.2,Phases=1,Linecode=CAB202_3_1_1,Length=0.283561000,Units=km
new line.SMT_10201612 bus1=BMT6362113B.1,bus2=BMT6362134B.1,Phases=1,Linecode=CAB202_3_1_1,Length=0.174510000,Units=km
new line.SMT_10201619 bus1=BMT100416829.1,bus2=BMT177724855.1,Phases=1,Linecode=CAB202_3_1_1,Length=0.075954000,Units=km
new line.SMT_10201626 bus1=BMT151954289.1,bus2=BMT6362113B.1,Phases=1,Linecode=CAB202_3_1_1,Length=0.131583000,Units=km
new line.SMT_10201640 bus1=BMT6362134B.1,bus2=BMT6362148B.1,Phases=1,Linecode=CAB202_3_1_1,Length=0.215525000,Units=km
new line.SMT_10201647 bus1=BMT6362148B.1,bus2=BMT151954290.1,Phases=1,Linecode=CAB202_3_1_1,Length=0.224280000,Units=km
new line.SMT_10201668 bus1=BMT158779128.3,bus2=BMT6362183B.3,Phases=1,Linecode=CAB202_3_1_1,Length=0.054450000,Units=km
new line.SMT_10201675 bus1=BMT6362183B.3,bus2=BMT6362190B.3,Phases=1,Linecode=CAB202_3_1_1,Length=0.039595000,Units=km
new line.SMT_10201682 bus1=BMT6362190B.3,bus2=BMT6362197B.3,Phases=1,Linecode=CAB202_3_1_1,Length=0.044240000,Units=km
new line.SMT_10201689 bus1=BMT6362197B.3,bus2=BMT158779129.3,Phases=1,Linecode=CAB202_3_1_1,Length=0.252486000,Units=km
new line.SMT_10205952 bus1=BMT150928414.3,bus2=BMT100360535.3,Phases=1,Linecode=CAB202_3_1_1,Length=0.206364000,Units=km
new line.SMT_10361828 bus1=BMT6615128B.1,bus2=BMT151953959.1,Phases=1,Linecode=CAB202_3_1_1,Length=0.143943000,Units=km
new line.SMT_10365790 bus1=BMT151954132.1,bus2=BMT151954134.1,Phases=1,Linecode=CAB202_3_1_1,Length=0.301722000,Units=km
new line.SMT_10365797 bus1=BMT151954134.1,bus2=BMT151954135.1,Phases=1,Linecode=CAB202_3_1_1,Length=0.142805000,Units=km
new line.SMT_10365839 bus1=BMT151954134.1,bus2=BMT6619860B.1,Phases=1,Linecode=CAB202_3_1_1,Length=0.254166000,Units=km
new line.SMT_10365846 bus1=BMT6619860B.1,bus2=BMT6619867B.1,Phases=1,Linecode=CAB202_3_1_1,Length=0.041949000,Units=km
new line.SMT_10365853 bus1=BMT6619867B.1,bus2=BMT6619874B.1,Phases=1,Linecode=CAB202_3_1_1,Length=0.349840000,Units=km
new line.SMT_10365860 bus1=BMT6619874B.1,bus2=BMT6619881B.1,Phases=1,Linecode=CAB202_3_1_1,Length=0.276262000,Units=km
new line.SMT_10078118 bus1=BMT6129433B.2,bus2=BMT119181491.2,Phases=1,Linecode=CAB103_3_1_1,Length=0.055185000,Units=km
new line.SMT_10081345 bus1=BMT6138869B.2,bus2=BMT177943410.2,Phases=1,Linecode=CAB202_3_1_1,Length=0.026848000,Units=km
new line.SMT_10081387 bus1=BMT6138967B.1.2.3,bus2=BMT4059358B.1.2.3,Phases=3,Linecode=CAB202_3_3_3,Length=0.280967000,Units=km
new line.SMT_10081394 bus1=BMT6138974B.2,bus2=BMT166150225.2,Phases=1,Linecode=CAB202_3_1_1,Length=0.065019000,Units=km
new line.SMT_10209067 bus1=BMT6374888B.2,bus2=BMT183004569.2,Phases=1,Linecode=CAB102_3_1_1,Length=0.069067000,Units=km
new line.SMT_10211643 bus1=BMT6378766B.3,bus2=BMT100410529.3,Phases=1,Linecode=CAB202_3_1_1,Length=0.189903000,Units=km
new line.SMT_10211664 bus1=BMT6378787B.3,bus2=BMT6378766B.3,Phases=1,Linecode=CAB202_3_1_1,Length=0.239843000,Units=km
new line.SMT_10214338 bus1=BMT179047251.3,bus2=BMT179047252.3,Phases=1,Linecode=CAB202_3_1_1,Length=0.045245000,Units=km
new line.SMT_10214352 bus1=BMT6383022B.3,bus2=BMT179047253.3,Phases=1,Linecode=CAB202_3_1_1,Length=0.040432000,Units=km
new line.SMT_10214380 bus1=BMT6383127B.1,bus2=BMT6383141B.1,Phases=1,Linecode=CABA06_3_1_1,Length=0.016390000,Units=km
new line.SMT_10214387 bus1=BMT6383141B.1,bus2=BMT6383155B.1,Phases=1,Linecode=CABA06_3_1_1,Length=0.017680000,Units=km
new line.SMT_10214394 bus1=BMT6383155B.1,bus2=BMT6383162B.1,Phases=1,Linecode=CABA06_3_1_1,Length=0.024066000,Units=km
new line.SMT_10214408 bus1=BMT6383176B.1,bus2=BMT6383197B.1,Phases=1,Linecode=CABA06_3_1_1,Length=0.019092000,Units=km
new line.SMT_10214422 bus1=BMT6383197B.1,bus2=BMT6383204B.1,Phases=1,Linecode=CABA06_3_1_1,Length=0.020601000,Units=km
new line.SMT_10214429 bus1=BMT6383204B.1,bus2=BMT6383211B.1,Phases=1,Linecode=CABA06_3_1_1,Length=0.038262000,Units=km
new line.SMT_10214436 bus1=BMT6383211B.1,bus2=BMT6383323B.1,Phases=1,Linecode=CABA06_3_1_1,Length=0.042491000,Units=km
new line.SMT_10214443 bus1=BMT6383218B.2,bus2=BMT6383225B.2,Phases=1,Linecode=CAB202_3_1_1,Length=0.678743000,Units=km
new line.SMT_10214450 bus1=BMT6383225B.2,bus2=BMT6383232B.2,Phases=1,Linecode=CAB202_3_1_1,Length=0.381371000,Units=km
new line.SMT_10214457 bus1=BMT6383232B.2,bus2=BMT166149142.2,Phases=1,Linecode=CAB202_3_1_1,Length=0.230687000,Units=km
new line.SMT_10214464 bus1=BMT166149142.2,bus2=BMT166149143.2,Phases=1,Linecode=CAB202_3_1_1,Length=0.105936000,Units=km
new line.SMT_10214471 bus1=BMT166149142.2,bus2=BMT6383253B.2,Phases=1,Linecode=CAB202_3_1_1,Length=0.241847000,Units=km
new line.SMT_10214478 bus1=BMT6383253B.2,bus2=BMT6383260B.2,Phases=1,Linecode=CAB202_3_1_1,Length=0.172895000,Units=km
new line.SMT_10214485 bus1=BMT6383260B.2,bus2=BMT6383267B.2,Phases=1,Linecode=CAB202_3_1_1,Length=0.249458000,Units=km
new line.SMT_10214492 bus1=BMT6383267B.2,bus2=BMT6383274B.2,Phases=1,Linecode=CAB202_3_1_1,Length=0.085651000,Units=km
new line.SMT_10214499 bus1=BMT6383274B.2,bus2=BMT6383281B.2,Phases=1,Linecode=CAB202_3_1_1,Length=0.056322000,Units=km
new line.SMT_10214506 bus1=BMT6383281B.2,bus2=BMT6383288B.2,Phases=1,Linecode=CAB202_3_1_1,Length=0.067502000,Units=km
new line.SMT_10214513 bus1=BMT6383288B.2,bus2=BMT166149144.2,Phases=1,Linecode=CAB202_3_1_1,Length=0.380506000,Units=km
new line.SMT_10214520 bus1=BMT6383295B.2,bus2=BMT166149145.2,Phases=1,Linecode=CAB202_3_1_1,Length=0.139543000,Units=km
new line.SMT_10214527 bus1=BMT166149144.2,bus2=BMT6383295B.2,Phases=1,Linecode=CAB202_3_1_1,Length=0.067988000,Units=km
new line.SMT_10214534 bus1=BMT166149144.2,bus2=BMT166149146.2,Phases=1,Linecode=CAB202_3_1_1,Length=0.077187000,Units=km
new line.SMT_10214541 bus1=BMT6383323B.1,bus2=BMT150816046.1,Phases=1,Linecode=CABA06_3_1_1,Length=0.047600000,Units=km
new line.SMT_10214856 bus1=BMT166149297.1.2.3,bus2=BMT166149298.1.2.3,Phases=3,Linecode=CAB103_3_3_3,Length=0.019912000,Units=km
new line.SMT_10214947 bus1=BMT182144305.1,bus2=BMT139086824.1,Phases=1,Linecode=CAB202_3_1_1,Length=0.039292000,Units=km
new line.SMT_10221275 bus1=BMT6393494B.3,bus2=BMT150928429.3,Phases=1,Linecode=CAB103_3_1_1,Length=0.056527000,Units=km
new line.SMT_10226616 bus1=BMT6401761B.3,bus2=BMT6401768B.3,Phases=1,Linecode=CAB202_3_1_1,Length=0.198884000,Units=km
new line.SMT_10226623 bus1=BMT6401768B.3,bus2=BMT6401775B.3,Phases=1,Linecode=CAB202_3_1_1,Length=0.282485000,Units=km
new line.SMT_10226630 bus1=BMT6401775B.3,bus2=BMT100364098.3,Phases=1,Linecode=CAB202_3_1_1,Length=0.097932000,Units=km
new line.SMT_10342431 bus1=BMT166148796.3,bus2=BMT166148797.3,Phases=1,Linecode=CAB103_3_1_1,Length=0.053812000,Units=km
new line.SMT_10342438 bus1=BMT166148796.1.2.3,bus2=BMT3969422B.1.2.3,Phases=3,Linecode=CAB202_3_3_3,Length=0.118929000,Units=km
new line.SMT_10342571 bus1=BMT6587443B.1,bus2=BMT3965124B.1,Phases=1,Linecode=CAB202_3_1_1,Length=0.047350000,Units=km
new line.SMT_10342578 bus1=BMT6587450B.1,bus2=BMT181321845.1,Phases=1,Linecode=CAB202_3_1_1,Length=0.032536000,Units=km
new line.SMT_10343404 bus1=BMT166903716.1,bus2=BMT181321856.1,Phases=1,Linecode=CAB202_3_1_1,Length=0.022009000,Units=km
new line.SMT_10343411 bus1=BMT166903716.1,bus2=BMT2111902B.1,Phases=1,Linecode=CAB202_3_1_1,Length=0.069244000,Units=km
new line.SMT_10343418 bus1=BMT166905835.1,bus2=BMT6588535B.1,Phases=1,Linecode=CAB202_3_1_1,Length=0.066244000,Units=km
new line.SMT_10343425 bus1=BMT6588535B.1,bus2=BMT166905836.1,Phases=1,Linecode=CAB202_3_1_1,Length=0.537466000,Units=km
new line.SMT_10348073 bus1=BMT166149646.1,bus2=BMT6595584B.1,Phases=1,Linecode=CAB202_3_1_1,Length=0.055938000,Units=km
new line.SMT_10306598 bus1=BMT6532997B.2,bus2=BMT6533004B.2,Phases=1,Linecode=CAB202_3_1_1,Length=0.056036000,Units=km
new line.SMT_10306605 bus1=BMT6533004B.2,bus2=BMT6533011B.2,Phases=1,Linecode=CAB202_3_1_1,Length=0.036645000,Units=km
new line.SMT_10306612 bus1=BMT6533011B.2,bus2=BMT6533018B.2,Phases=1,Linecode=CAB202_3_1_1,Length=0.424718000,Units=km
new line.SMT_10306619 bus1=BMT6533018B.2,bus2=BMT6533214B.2,Phases=1,Linecode=CAB202_3_1_1,Length=0.132136000,Units=km
new line.SMT_10306794 bus1=BMT6533214B.2,bus2=BMT6533256B.2,Phases=1,Linecode=CAB202_3_1_1,Length=0.122233000,Units=km
new line.SMT_10306822 bus1=BMT6533256B.2,bus2=BMT6533270B.2,Phases=1,Linecode=CAB202_3_1_1,Length=0.049970000,Units=km
new line.SMT_10306836 bus1=BMT6533270B.2,bus2=BMT6533319B.2,Phases=1,Linecode=CAB202_3_1_1,Length=0.130593000,Units=km
new line.SMT_10306864 bus1=BMT6533319B.2,bus2=BMT100371609.2,Phases=1,Linecode=CAB202_3_1_1,Length=0.221761000,Units=km
new line.SMT_10306955 bus1=BMT100371609.2,bus2=BMT100371616.2,Phases=1,Linecode=CAB103_3_1_1,Length=0.073290000,Units=km
new line.SMT_10306962 bus1=BMT100371609.2,bus2=BMT2518259B.2,Phases=1,Linecode=CAB202_3_1_1,Length=0.150614000,Units=km
new line.SMT_10307046 bus1=BMT6533550B.2,bus2=BMT6533599B.2,Phases=1,Linecode=CAB202_3_1_1,Length=0.174928000,Units=km
new line.SMT_10307088 bus1=BMT6533599B.2,bus2=BMT100371623.2,Phases=1,Linecode=CAB202_3_1_1,Length=0.184571000,Units=km
new line.SMT_10307214 bus1=BMT6533767B.2,bus2=BMT6533823B.2,Phases=1,Linecode=CAB202_3_1_1,Length=0.083288000,Units=km
new line.SMT_10307270 bus1=BMT6533823B.2,bus2=BMT6533837B.2,Phases=1,Linecode=CAB202_3_1_1,Length=0.253966000,Units=km
new line.SMT_10307284 bus1=BMT6533837B.2,bus2=BMT6533844B.2,Phases=1,Linecode=CAB202_3_1_1,Length=0.321651000,Units=km
new line.SMT_10307291 bus1=BMT6533844B.2,bus2=BMT6533851B.2,Phases=1,Linecode=CAB202_3_1_1,Length=0.236066000,Units=km
new line.SMT_10307298 bus1=BMT6533851B.2,bus2=BMT6533879B.2,Phases=1,Linecode=CAB202_3_1_1,Length=0.047670000,Units=km
...
