2024_89_CemigReconfigurationCases/1_SEsCemig/ENC07/ENC07Reguladores.dss
new transformer.RT1023-1 Phases=1,windings=2,buses=[BMT166148485.1.0 BMT166148486.1.0],conns=[LN LN],kvs=[7.967 7.967],kvas=[1500.000000000 1500.000000000],xhl=0.700000000,%loadloss=0.200000000,%noloadloss=0.0279
new RegControl.RC1023-1 transformer=RT1023-1,winding=2,PTphase=1,ptratio=66.4,band=3,vreg=123,revNeutral=Yes  ! NUMEQ:42732
new transformer.RT1023-2 Phases=1,windings=2,buses=[BMT166148485.2.0 BMT166148486.2.0],conns=[LN LN],kvs=[7.967 7.967],kvas=[1500.000000000 1500.000000000],xhl=0.700000000,%loadloss=0.200000000,%noloadloss=0.0279
new RegControl.RC1023-2 transformer=RT1023-2,winding=2,PTphase=1,ptratio=66.4,band=3,vreg=123,revNeutral=Yes  ! NUMEQ:42732
new transformer.RT1023-3 Phases=1,windings=2,buses=[BMT166148485.3.0 BMT166148486.3.0],conns=[LN LN],kvs=[7.967 7.967],kvas=[1500.000000000 1500.000000000],xhl=0.700000000,%loadloss=0.200000000,%noloadloss=0.0279
new RegControl.RC1023-3 transformer=RT1023-3,winding=2,PTphase=1,ptratio=66.4,band=3,vreg=123,revNeutral=Yes  ! NUMEQ:42732
new transformer.RT1037-1 Phases=1,windings=2,buses=[BMT100381052.1.0 BMT177369582.1.0],conns=[LN LN],kvs=[7.967 7.967],kvas=[750.000000000 750.000000000],xhl=0.700000000,%loadloss=0.200000000,%noloadloss=0.0559
new RegControl.RC1037-1 transformer=RT1037-1,winding=2,PTphase=1,ptratio=66.4,band=3,vreg=123,revNeutral=Yes  ! NUMEQ:121921
new transformer.RT1037-2 Phases=1,windings=2,buses=[BMT100381052.2.0 BMT177369582.2.0],conns=[LN LN],kvs=[7.967 7.967],kvas=[750.000000000 750.000000000],xhl=0.700000000,%loadloss=0.200000000,%noloadloss=0.0559
new RegControl.RC1037-2 transformer=RT1037-2,winding=2,PTphase=1,ptratio=66.4,band=3,vreg=123,revNeutral=Yes  ! NUMEQ:121921
new transformer.RT1037-3 Phases=1,windings=2,buses=[BMT100381052.3.0 BMT177369582.3.0],conns=[LN LN],kvs=[7.967 7.967],kvas=[750.000000000 750.000000000],xhl=0.700000000,%loadloss=0.200000000,%noloadloss=0.0559
new RegControl.RC1037-3 transformer=RT1037-3,winding=2,PTphase=1,ptratio=66.4,band=3,vreg=123,revNeutral=Yes  ! NUMEQ:121921
new transformer.RT127-1 Phases=1,windings=2,buses=[BMT100409542.1.0 BMT165405429.1.0],conns=[LN LN],kvs=[7.967 7.967],kvas=[1500.000000000 1500.000000000],xhl=0.700000000,%loadloss=0.200000000,%noloadloss=0.0279
new RegControl.RC127-1 transformer=RT127-1,winding=2,PTphase=1,ptratio=66.4,band=3,vreg=123,revNeutral=Yes  ! NUMEQ:19489
new transformer.RT127-2 Phases=1,windings=2,buses=[BMT100409542.2.0 BMT165405429.2.0],conns=[LN LN],kvs=[7.967 7.967],kvas=[1500.000000000 1500.000000000],xhl=0.700000000,%loadloss=0.200000000,%noloadloss=0.0279
new RegControl.RC127-2 transformer=RT127-2,winding=2,PTphase=1,ptratio=66.4,band=3,vreg=123,revNeutral=Yes  ! NUMEQ:19489
new transformer.RT127-3 Phases=1,windings=2,buses=[BMT100409542.3.0 BMT165405429.3.0],conns=[LN LN],kvs=[7.967 7.967],kvas=[1500.000000000 1500.000000000],xhl=0.700000000,%loadloss=0.200000000,%noloadloss=0.0279
new RegControl.RC127-3 transformer=RT127-3,winding=2,PTphase=1,ptratio=66.4,band=3,vreg=123,revNeutral=Yes  ! NUMEQ:19489
new transformer.RT2108-1 Phases=1,windings=2,buses=[BMT100358897.1.0 BMT179039589.1.0],conns=[LN LN],kvs=[7.967 7.967],kvas=[750.000000000 750.000000000],xhl=0.700000000,%loadloss=0.200000000,%noloadloss=0.0559
new RegControl.RC2108-1 transformer=RT2108-1,winding=2,PTphase=1,ptratio=66.4,band=3,vreg=123,revNeutral=Yes  ! NUMEQ:10789
new transformer.RT2108-2 Phases=1,windings=2,buses=[BMT100358897.2.0 BMT179039589.2.0],conns=[LN LN],kvs=[7.967 7.967],kvas=[750.000000000 750.000000000],xhl=0.700000000,%loadloss=0.200000000,%noloadloss=0.0559
new RegControl.RC2108-2 transformer=RT2108-2,winding=2,PTphase=1,ptratio=66.4,band=3,vreg=123,revNeutral=Yes  ! NUMEQ:10789
new transformer.RT2108-3 Phases=1,windings=2,buses=[BMT100358897.3.0 BMT179039589.3.0],conns=[LN LN],kvs=[7.967 7.967],kvas=[750.000000000 750.000000000],xhl=0.700000000,%loadloss=0.200000000,%noloadloss=0.0559
new RegControl.RC2108-3 transformer=RT2108-3,winding=2,PTphase=1,ptratio=66.4,band=3,vreg=123,revNeutral=Yes  ! NUMEQ:10789
new transformer.RT3123-1 Phases=1,windings=2,buses=[BMT100358225.1.0 BMT178692747.1.0],conns=[LN LN],kvs=[7.967 7.967],kvas=[1500.000000000 1500.000000000],xhl=0.700000000,%loadloss=0.200000000,%noloadloss=0.0279
new RegControl.RC3123-1 transformer=RT3123-1,winding=2,PTphase=1,ptratio=66.4,band=3,vreg=123,revNeutral=Yes  ! NUMEQ:133461
new transformer.RT3123-2 Phases=1,windings=2,buses=[BMT100358225.2.0 BMT178692747.2.0],conns=[LN LN],kvs=[7.967 7.967],kvas=[1500.000000000 1500.000000000],xhl=0.700000000,%loadloss=0.200000000,%noloadloss=0.0279
new RegControl.RC3123-2 transformer=RT3123-2,winding=2,PTphase=1,ptratio=66.4,band=3,vreg=123,revNeutral=Yes  ! NUMEQ:133461
new transformer.RT3123-3 Phases=1,windings=2,buses=[BMT100358225.3.0 BMT178692747.3.0],conns=[LN LN],kvs=[7.967 7.967],kvas=[1500.000000000 1500.000000000],xhl=0.700000000,%loadloss=0.200000000,%noloadloss=0.0279
...